/*--------------------------------*- C++ -*----------------------------------*\
| =========                 |                                                 |
| \\      /  F ield         | OpenFOAM: The Open Source CFD Toolbox           |
|  \\    /   O peration     | Version:  2.3.0                                 |
|   \\  /    A nd           | Web:      www.OpenFOAM.org                      |
|    \\/     M anipulation  |                                                 |
\*---------------------------------------------------------------------------*/
FoamFile
{
    version     2.0;
    format      ascii;
    class       polyBoundaryMesh;
    location    "constant/polyMesh";
    object      boundary;
}
// * * * * * * * * * * * * * * * * * * * * * * * * * * * * * * * * * * * * * //

3
(
    walls
    {
        type            wall;
        inGroups        1(wall);
        nFaces          100;
        startFace       300;
    }
    inlet
    {
        type            wall;
        inGroups        1(wall);
        nFaces          25;
        startFace       400;
    }
    outlet
    {
        type            wall;
        inGroups        1(wall);
        nFaces          25;
        startFace       425;
    }
)

// ************************************************************************* //
