/*--------------------------------*- C++ -*----------------------------------*\
| =========                 |                                                 |
| \\      /  F ield         | OpenFOAM: The Open Source CFD Toolbox           |
|  \\    /   O peration     | Version:  2.3.0                                 |
|   \\  /    A nd           | Web:      www.OpenFOAM.org                      |
|    \\/     M anipulation  |                                                 |
\*---------------------------------------------------------------------------*/
FoamFile
{
    version     2.0;
    format      ascii;
    class       volScalarField;
    object      T;
}
// * * * * * * * * * * * * * * * * * * * * * * * * * * * * * * * * * * * * * //

dimensions      [0 0 0 1 0 0 0];

internalField   uniform 0;

boundaryField
{
    walls
    {
	type		fixedGradient;
 	gradient 	uniform 10;
    }

    inlet
    {
//         type            fixedValue;
//         value           uniform 0;
	type		fixedGradient;
 	gradient 	uniform 10;
    }

    outlet
    {
//         type            fixedValue;
//         value           uniform 20;
//         type            zeroGradient;
	type		fixedGradient;
 	gradient 	uniform 10;//(20 0 0);
    }
}

// ************************************************************************* //
